PyDSS/api/src/tmp_pydss_project/project1/DSSfiles/218672ac-d416-4e9f-8578-0d2a531aa33c_distribution_federate/PVSystems_new.dss
New Generator.pv_load_p1rlv3262_2 conn=wye bus1=p1rlv3262.2 kV=0.12 model=7 kW=0.15930614315884653 kvar=-0.0 Phases=1
New Generator.pv_load_p1rlv3264 conn=wye bus1=p1rlv3264.1.2.3 kV=0.48 model=7 kW=22.257773823289963 kvar=-0.0 Phases=3
New Generator.pv_load_p1rlv3266 conn=wye bus1=p1rlv3266.1.2.3 kV=0.48 model=7 kW=7.135705700549331 kvar=-0.0 Phases=3
New Generator.pv_load_p1rlv3268_2 conn=wye bus1=p1rlv3268.2 kV=0.12 model=7 kW=1.5675125741842861 kvar=-0.0 Phases=1
New Generator.pv_load_p1rlv3272_2 conn=wye bus1=p1rlv3272.2 kV=0.12 model=7 kW=1.118148750041829 kvar=-0.0 Phases=1
New Generator.pv_load_p1rlv3273_1 conn=wye bus1=p1rlv3273.1 kV=0.12 model=7 kW=2.733757799726465 kvar=-0.0 Phases=1
New Generator.pv_load_p1rlv3273_2 conn=wye bus1=p1rlv3273.2 kV=0.12 model=7 kW=2.733757799726465 kvar=-0.0 Phases=1
New Generator.pv_load_p1rlv3274_2 conn=wye bus1=p1rlv3274.2 kV=0.12 model=7 kW=2.2843984842059024 kvar=-0.0 Phases=1
New Generator.pv_load_p1rlv3277_1 conn=wye bus1=p1rlv3277.1 kV=0.12 model=7 kW=0.6642763040045169 kvar=-0.0 Phases=1
New Generator.pv_load_p1rlv3279_1 conn=wye bus1=p1rlv3279.1 kV=0.12 model=7 kW=0.2058952360723496 kvar=-0.0 Phases=1
New Generator.pv_load_p1rlv3281_2 conn=wye bus1=p1rlv3281.2 kV=0.12 model=7 kW=0.05710981181775107 kvar=-0.0 Phases=1
New Generator.pv_load_p1rlv4158_1 conn=wye bus1=p1rlv4158.1 kV=0.12 model=7 kW=1.3180339931283367 kvar=-0.0 Phases=1
New Generator.pv_load_p1rlv4158_2 conn=wye bus1=p1rlv4158.2 kV=0.12 model=7 kW=1.3180339931283367 kvar=-0.0 Phases=1
New Generator.pv_load_p1rlv4159_1 conn=wye bus1=p1rlv4159.1 kV=0.12 model=7 kW=0.21942110175691504 kvar=-0.0 Phases=1
New Generator.pv_load_p1rlv6012_2 conn=wye bus1=p1rlv6012.2 kV=0.12 model=7 kW=0.12173399346026069 kvar=-0.0 Phases=1
New Generator.pv_load_p1rlv6014_2 conn=wye bus1=p1rlv6014.2 kV=0.12 model=7 kW=0.10971085145325049 kvar=-0.0 Phases=1
New Generator.pv_load_p1rlv6036_1 conn=wye bus1=p1rlv6036.1 kV=0.12 model=7 kW=0.19387224435273592 kvar=-0.0 Phases=1
New Generator.pv_load_p1rlv6039_1 conn=wye bus1=p1rlv6039.1 kV=0.12 model=7 kW=0.13075138753736748 kvar=-0.0 Phases=1
New Generator.pv_load_p1rlv6056_1 conn=wye bus1=p1rlv6056.1 kV=0.12 model=7 kW=0.14127150529202945 kvar=-0.0 Phases=1
New Generator.pv_load_p1rlv6057_2 conn=wye bus1=p1rlv6057.2 kV=0.12 model=7 kW=0.5936412276517864 kvar=-0.0 Phases=1
New Generator.pv_load_p1rlv6060_2 conn=wye bus1=p1rlv6060.2 kV=0.12 model=7 kW=0.12624261535511583 kvar=-0.0 Phases=1
New Generator.pv_load_p1rlv6063_1 conn=wye bus1=p1rlv6063.1 kV=0.12 model=7 kW=0.19387224435273592 kvar=-0.0 Phases=1
New Generator.pv_load_p1rlv6071_2 conn=wye bus1=p1rlv6071.2 kV=0.12 model=7 kW=0.30358354666817594 kvar=-0.0 Phases=1
New Generator.pv_load_p1rlv6076_1 conn=wye bus1=p1rlv6076.1 kV=0.12 model=7 kW=0.19387224435273592 kvar=-0.0 Phases=1
New Generator.pv_load_p1rlv6079_1 conn=wye bus1=p1rlv6079.1 kV=0.12 model=7 kW=0.18635787452797736 kvar=-0.0 Phases=1
New Generator.pv_load_p1rlv6081_2 conn=wye bus1=p1rlv6081.2 kV=0.12 model=7 kW=0.17132913487846022 kvar=-0.0 Phases=1
New Generator.pv_load_p1rlv6082_1 conn=wye bus1=p1rlv6082.1 kV=0.12 model=7 kW=1.6606907600112923 kvar=-0.0 Phases=1
New Generator.pv_load_p1rlv6083_1 conn=wye bus1=p1rlv6083.1 kV=0.12 model=7 kW=1.2549117837263999 kvar=-0.0 Phases=1
New Generator.pv_load_p1rlv6083_2 conn=wye bus1=p1rlv6083.2 kV=0.12 model=7 kW=1.2549117837263999 kvar=-0.0 Phases=1
New Generator.pv_load_p1rlv6085_1 conn=wye bus1=p1rlv6085.1 kV=0.12 model=7 kW=0.4869356732662498 kvar=-0.0 Phases=1
New Generator.pv_load_p1rlv6087_1 conn=wye bus1=p1rlv6087.1 kV=0.12 model=7 kW=0.33514389993216187 kvar=-0.0 Phases=1
New Generator.pv_load_p1rlv6090_2 conn=wye bus1=p1rlv6090.2 kV=0.12 model=7 kW=0.48092417740644294 kvar=-0.0 Phases=1
New Generator.pv_load_p1rlv6530_1 conn=wye bus1=p1rlv6530.1 kV=0.12 model=7 kW=2.8765308263968774 kvar=-0.0 Phases=1
New Generator.pv_load_p1rlv6538_1 conn=wye bus1=p1rlv6538.1 kV=0.12 model=7 kW=0.3171094123527413 kvar=-0.0 Phases=1
New Generator.pv_load_p1rlv6538_2 conn=wye bus1=p1rlv6538.2 kV=0.12 model=7 kW=0.3171094123527413 kvar=-0.0 Phases=1
New Generator.pv_load_p1rlv6539_2 conn=wye bus1=p1rlv6539.2 kV=0.12 model=7 kW=0.18635787452797736 kvar=-0.0 Phases=1
New Generator.pv_load_p1rlv6544_2 conn=wye bus1=p1rlv6544.2 kV=0.12 model=7 kW=0.22242684968681845 kvar=-0.0 Phases=1
New Generator.pv_load_p1rlv6546_1 conn=wye bus1=p1rlv6546.1 kV=0.12 model=7 kW=0.5124845306704289 kvar=-0.0 Phases=1
New Generator.pv_load_p1rlv6547_1 conn=wye bus1=p1rlv6547.1 kV=0.12 model=7 kW=0.6672820519344203 kvar=-0.0 Phases=1
New Generator.pv_load_p1rlv6552_1 conn=wye bus1=p1rlv6552.1 kV=0.12 model=7 kW=0.7228898915115987 kvar=-0.0 Phases=1
New Generator.pv_load_p1rlv6566_1 conn=wye bus1=p1rlv6566.1 kV=0.12 model=7 kW=0.09618483548128859 kvar=-0.0 Phases=1
New Generator.pv_load_p1rlv6568_1 conn=wye bus1=p1rlv6568.1 kV=0.12 model=7 kW=0.6763007985980956 kvar=-0.0 Phases=1
...